# Debug Logging enabled for block 'TestInSimulink/OpenFAST FMU/FMU'
