  6 Wind speed [m/s]          Pitch [deg]             VC: OpenFAST and HAWC2 input, wpdata.100. Seems that this is the file that was used, but it does not match documented specs of the IEA15MW.
             0.0             2.606872
             3.0             2.606872
			 4.0             1.469560
             5.0             0.000643
             6.0             0.000535
            50.0             0.000535
			