C:/git/master_thesis/prosjektoppgave-tops-copy-ext/OpenFAST/test1003